lightsim2grid/tests/pf_delta_case14.json
{
  "network": {
    "baseMVA": 100.0,
    "bus": {
      "1": {
        "bus_i": 1,
        "bus_type": 3,
        "base_kv": 135.0,
        "vmax": 2.0,
        "vmin": 0.0
      },
      "2": {
        "bus_i": 2,
        "bus_type": 2,
        "base_kv": 135.0,
        "vmax": 2.0,
        "vmin": 0.0
      },
      "3": {
        "bus_i": 3,
        "bus_type": 2,
        "base_kv": 135.0,
        "vmax": 2.0,
        "vmin": 0.0
      },
      "4": {
        "bus_i": 4,
        "bus_type": 1,
        "base_kv": 135.0,
        "vmax": 2.0,
        "vmin": 0.0
      },
      "5": {
        "bus_i": 5,
        "bus_type": 1,
        "base_kv": 135.0,
        "vmax": 2.0,
        "vmin": 0.0
      },
      "6": {
        "bus_i": 6,
        "bus_type": 2,
        "base_kv": 0.208,
        "vmax": 2.0,
        "vmin": 0.0
      },
      "7": {
        "bus_i": 7,
        "bus_type": 1,
        "base_kv": 14.0,
        "vmax": 2.0,
        "vmin": 0.0
      },
      "8": {
        "bus_i": 8,
        "bus_type": 2,
        "base_kv": 12.0,
        "vmax": 2.0,
        "vmin": 0.0
      },
      "9": {
        "bus_i": 9,
        "bus_type": 1,
        "base_kv": 0.208,
        "vmax": 2.0,
        "vmin": 0.0
      },
      "10": {
        "bus_i": 10,
        "bus_type": 1,
        "base_kv": 0.208,
        "vmax": 2.0,
        "vmin": 0.0
      },
      "11": {
        "bus_i": 11,
        "bus_type": 1,
        "base_kv": 0.208,
        "vmax": 2.0,
        "vmin": 0.0
      },
      "12": {
        "bus_i": 12,
        "bus_type": 1,
        "base_kv": 0.208,
        "vmax": 2.0,
        "vmin": 0.0
      },
      "13": {
        "bus_i": 13,
        "bus_type": 1,
        "base_kv": 0.208,
        "vmax": 2.0,
        "vmin": 0.0
      },
      "14": {
        "bus_i": 14,
        "bus_type": 1,
        "base_kv": 0.208,
        "vmax": 2.0,
        "vmin": 0.0
      }
    },
    "gen": {
      "1": {
        "gen_bus": 1,
        "pg": 232.3932723516125,
        "qg": -16.54930054271304,
        "qmax": 0.0,
        "qmin": 0.0,
        "vg": 1.06,
        "mbase": 1.0,
        "gen_status": 1,
        "pmax": 1000000000.0,
        "pmin": -1000000000.0
      },
      "2": {
        "gen_bus": 2,
        "pg": 40.0,
        "qg": 43.557100131702356,
        "qmax": 50.0,
        "qmin": -40.0,
        "vg": 1.045,
        "mbase": NaN,
        "gen_status": 1,
        "pmax": 140.0,
        "pmin": 0.0
      },
      "3": {
        "gen_bus": 3,
        "pg": 0.0,
        "qg": 25.07534849503837,
        "qmax": 40.0,
        "qmin": 0.0,
        "vg": 1.01,
        "mbase": NaN,
        "gen_status": 1,
        "pmax": 100.0,
        "pmin": 0.0
      },
      "4": {
        "gen_bus": 6,
        "pg": 0.0,
        "qg": 12.730944403419336,
        "qmax": 24.0,
        "qmin": -6.0,
        "vg": 1.07,
        "mbase": NaN,
        "gen_status": 1,
        "pmax": 100.0,
        "pmin": 0.0
      },
      "5": {
        "gen_bus": 8,
        "pg": 0.0,
        "qg": 17.623451366097335,
        "qmax": 24.0,
        "qmin": -6.0,
        "vg": 1.09,
        "mbase": NaN,
        "gen_status": 1,
        "pmax": 100.0,
        "pmin": 0.0
      }
    },
    "branch": {
      "1": {
        "f_bus": 1,
        "t_bus": 2,
        "br_r": 0.019379999999999998,
        "br_x": 0.05916999999999999,
        "g_fr": 0.0,
        "g_to": 0.0,
        "b_fr": 0.0264,
        "b_to": 0.0264,
        "tap": 1.0,
        "shift": 0.0,
        "transformer": false,
        "rate_a": 9899.999999999998,
        "br_status": 1
      },
      "2": {
        "f_bus": 1,
        "t_bus": 5,
        "br_r": 0.05403,
        "br_x": 0.22304,
        "g_fr": 0.0,
        "g_to": 0.0,
        "b_fr": 0.0246,
        "b_to": 0.0246,
        "tap": 1.0,
        "shift": 0.0,
        "transformer": false,
        "rate_a": 9899.999999999998,
        "br_status": 1
      },
      "3": {
        "f_bus": 2,
        "t_bus": 3,
        "br_r": 0.046990000000000004,
        "br_x": 0.19797,
        "g_fr": 0.0,
        "g_to": 0.0,
        "b_fr": 0.021900000000000003,
        "b_to": 0.021900000000000003,
        "tap": 1.0,
        "shift": 0.0,
        "transformer": false,
        "rate_a": 9899.999999999998,
        "br_status": 1
      },
      "4": {
        "f_bus": 2,
        "t_bus": 4,
        "br_r": 0.058109999999999995,
        "br_x": 0.17632,
        "g_fr": 0.0,
        "g_to": 0.0,
        "b_fr": 0.017000000000000005,
        "b_to": 0.017000000000000005,
        "tap": 1.0,
        "shift": 0.0,
        "transformer": false,
        "rate_a": 9899.999999999998,
        "br_status": 1
      },
      "5": {
        "f_bus": 2,
        "t_bus": 5,
        "br_r": 0.05695,
        "br_x": 0.17388,
        "g_fr": 0.0,
        "g_to": 0.0,
        "b_fr": 0.017300000000000003,
        "b_to": 0.017300000000000003,
        "tap": 1.0,
        "shift": 0.0,
        "transformer": false,
        "rate_a": 9899.999999999998,
        "br_status": 1
      },
      "6": {
        "f_bus": 3,
        "t_bus": 4,
        "br_r": 0.06701,
        "br_x": 0.17103,
        "g_fr": 0.0,
        "g_to": 0.0,
        "b_fr": 0.006400000000000001,
        "b_to": 0.006400000000000001,
        "tap": 1.0,
        "shift": 0.0,
        "transformer": false,
        "rate_a": 9899.999999999998,
        "br_status": 1
      },
      "7": {
        "f_bus": 4,
        "t_bus": 5,
        "br_r": 0.01335,
        "br_x": 0.04211,
        "g_fr": 0.0,
        "g_to": 0.0,
        "b_fr": 0.0,
        "b_to": 0.0,
        "tap": 1.0,
        "shift": 0.0,
        "transformer": false,
        "rate_a": 9899.999999999998,
        "br_status": 1
      },
      "8": {
        "f_bus": 6,
        "t_bus": 11,
        "br_r": 0.09498,
        "br_x": 0.19890000000000002,
        "g_fr": 0.0,
        "g_to": 0.0,
        "b_fr": 0.0,
        "b_to": 0.0,
        "tap": 1.0,
        "shift": 0.0,
        "transformer": false,
        "rate_a": 9900.0,
        "br_status": 1
      },
      "9": {
        "f_bus": 6,
        "t_bus": 12,
        "br_r": 0.12291,
        "br_x": 0.25581,
        "g_fr": 0.0,
        "g_to": 0.0,
        "b_fr": 0.0,
        "b_to": 0.0,
        "tap": 1.0,
        "shift": 0.0,
        "transformer": false,
        "rate_a": 9900.0,
        "br_status": 1
      },
      "10": {
        "f_bus": 6,
        "t_bus": 13,
        "br_r": 0.06615,
        "br_x": 0.13027,
        "g_fr": 0.0,
        "g_to": 0.0,
        "b_fr": 0.0,
        "b_to": 0.0,
        "tap": 1.0,
        "shift": 0.0,
        "transformer": false,
        "rate_a": 9900.0,
        "br_status": 1
      },
      "11": {
        "f_bus": 9,
        "t_bus": 10,
        "br_r": 0.031810000000000005,
        "br_x": 0.08449999999999999,
        "g_fr": 0.0,
        "g_to": 0.0,
        "b_fr": 0.0,
        "b_to": 0.0,
        "tap": 1.0,
        "shift": 0.0,
        "transformer": false,
        "rate_a": 9900.0,
        "br_status": 1
      },
      "12": {
        "f_bus": 9,
        "t_bus": 14,
        "br_r": 0.12711,
        "br_x": 0.27038,
        "g_fr": 0.0,
        "g_to": 0.0,
        "b_fr": 0.0,
        "b_to": 0.0,
        "tap": 1.0,
        "shift": 0.0,
        "transformer": false,
        "rate_a": 9900.0,
        "br_status": 1
      },
      "13": {
        "f_bus": 10,
        "t_bus": 11,
        "br_r": 0.08205,
        "br_x": 0.19207000000000002,
        "g_fr": 0.0,
        "g_to": 0.0,
        "b_fr": 0.0,
        "b_to": 0.0,
        "tap": 1.0,
        "shift": 0.0,
        "transformer": false,
        "rate_a": 9900.0,
        "br_status": 1
      },
      "14": {
        "f_bus": 12,
        "t_bus": 13,
        "br_r": 0.22092,
        "br_x": 0.19988,
        "g_fr": 0.0,
        "g_to": 0.0,
        "b_fr": 0.0,
        "b_to": 0.0,
        "tap": 1.0,
        "shift": 0.0,
        "transformer": false,
        "rate_a": 9900.0,
        "br_status": 1
      },
      "15": {
        "f_bus": 13,
        "t_bus": 14,
        "br_r": 0.17093,
        "br_x": 0.34802,
        "g_fr": 0.0,
        "g_to": 0.0,
        "b_fr": 0.0,
        "b_to": 0.0,
        "tap": 1.0,
        "shift": 0.0,
        "transformer": false,
        "rate_a": 9900.0,
        "br_status": 1
      },
      "16": {
        "f_bus": 4,
        "t_bus": 7,
        "br_r": 0.0,
        "br_x": 0.20912,
        "g_fr": 0.0,
        "g_to": 0.0,
        "b_fr": -0.0,
        "b_to": -0.0,
        "tap": 0.9780000000000001,
        "shift": 0.0,
        "transformer": true,
        "rate_a": 9900.0,
        "br_status": 1
      },
      "17": {
        "f_bus": 4,
        "t_bus": 9,
        "br_r": 0.0,
        "br_x": 0.55618,
        "g_fr": 0.0,
        "g_to": 0.0,
        "b_fr": -0.0,
        "b_to": -0.0,
        "tap": 0.9690000000000001,
        "shift": 0.0,
        "transformer": true,
        "rate_a": 9900.0,
        "br_status": 1
      },
      "18": {
        "f_bus": 5,
        "t_bus": 6,
        "br_r": 0.0,
        "br_x": 0.25202,
        "g_fr": 0.0,
        "g_to": 0.0,
        "b_fr": -0.0,
        "b_to": -0.0,
        "tap": 0.932,
        "shift": 0.0,
        "transformer": true,
        "rate_a": 9900.0,
        "br_status": 1
      },
      "19": {
        "f_bus": 7,
        "t_bus": 8,
        "br_r": 0.0,
        "br_x": 0.17614999999999997,
        "g_fr": 0.0,
        "g_to": 0.0,
        "b_fr": -0.0,
        "b_to": -0.0,
        "tap": 1.0,
        "shift": 0.0,
        "transformer": false,
        "rate_a": 9900.0,
        "br_status": 1
      },
      "20": {
        "f_bus": 7,
        "t_bus": 9,
        "br_r": 0.0,
        "br_x": 0.11001,
        "g_fr": 0.0,
        "g_to": 0.0,
        "b_fr": -0.0,
        "b_to": -0.0,
        "tap": 1.0,
        "shift": 0.0,
        "transformer": false,
        "rate_a": 9900.0,
        "br_status": 1
      }
    },
    "load": {
      "1": {
        "load_bus": 2,
        "pd": 21.7,
        "qd": 12.7,
        "status": 1
      },
      "2": {
        "load_bus": 3,
        "pd": 94.2,
        "qd": 19.0,
        "status": 1
      },
      "3": {
        "load_bus": 4,
        "pd": 47.79999999999998,
        "qd": -3.8999999999999986,
        "status": 1
      },
      "4": {
        "load_bus": 5,
        "pd": 7.599999999999994,
        "qd": 1.6000000000000014,
        "status": 1
      },
      "5": {
        "load_bus": 6,
        "pd": 11.199999999999989,
        "qd": 7.5000000000000036,
        "status": 1
      },
      "6": {
        "load_bus": 9,
        "pd": 29.5,
        "qd": 16.6,
        "status": 1
      },
      "7": {
        "load_bus": 10,
        "pd": 9.0,
        "qd": 5.799999999999997,
        "status": 1
      },
      "8": {
        "load_bus": 11,
        "pd": 3.5,
        "qd": 1.7999999999999972,
        "status": 1
      },
      "9": {
        "load_bus": 12,
        "pd": 6.099999999999994,
        "qd": 1.6000000000000014,
        "status": 1
      },
      "10": {
        "load_bus": 13,
        "pd": 13.5,
        "qd": 5.799999999999997,
        "status": 1
      },
      "11": {
        "load_bus": 14,
        "pd": 14.899999999999977,
        "qd": 5.0,
        "status": 1
      }
    },
    "shunt": {
      "1": {
        "shunt_bus": 9,
        "gs": 0.0,
        "bs": 0.19,
        "status": 1
      }
    }
  },
  "solution": {
    "solution": {
      "bus": {
        "1": {
          "vm": 1.06,
          "va": 0.0
        },
        "2": {
          "vm": 1.045,
          "va": -0.08696258579893273
        },
        "3": {
          "vm": 1.0099999999999998,
          "va": -0.22209489156210976
        },
        "4": {
          "vm": 1.017670853697962,
          "va": -0.17999407948922763
        },
        "5": {
          "vm": 1.0195138598245423,
          "va": -0.15313263861103937
        },
        "6": {
          "vm": 1.0700000000000003,
          "va": -0.24820233853475715
        },
        "7": {
          "vm": 1.0615195324941464,
          "va": -0.2331694843597481
        },
        "8": {
          "vm": 1.09,
          "va": -0.23316948435974816
        },
        "9": {
          "vm": 1.0559317206401924,
          "va": -0.2607263819753595
        },
        "10": {
          "vm": 1.0509846250025665,
          "va": -0.2634973917979791
        },
        "11": {
          "vm": 1.056906518541777,
          "va": -0.2581450528581688
        },
        "12": {
          "vm": 1.055188563197416,
          "va": -0.2631185865373742
        },
        "13": {
          "vm": 1.0503817136292164,
          "va": -0.26452692440256464
        },
        "14": {
          "vm": 1.035529945856189,
          "va": -0.279839888122914
        }
      },
      "gen": {
        "1": {
          "pg": 232.3932723516125,
          "qg": -16.54930054271304
        },
        "2": {
          "pg": 40.0,
          "qg": 43.557100131702356
        },
        "3": {
          "pg": 0.0,
          "qg": 25.07534849503837
        },
        "4": {
          "pg": 0.0,
          "qg": 12.730944403419336
        },
        "5": {
          "pg": 0.0,
          "qg": 17.623451366097335
        }
      },
      "branch": {
        "1": {
          "pf": 156.8828905276527,
          "qf": -20.404291683138474,
          "pt": -152.58529019170547,
          "qt": 27.67624972637868
        },
        "2": {
          "pf": 75.51038182395982,
          "qf": 3.8549911404258097,
          "pt": -72.7475092314731,
          "qt": 2.2293587111759536
        },
        "3": {
          "pf": 73.23757923676087,
          "qf": 3.5602029509070876,
          "pt": -70.91430990261782,
          "qt": 1.602232873051274
        },
        "4": {
          "pf": 56.1314959376533,
          "qf": -1.5503504015192866,
          "pt": -54.454838105687045,
          "qt": 3.0206874669465256
        },
        "5": {
          "pf": 41.516215017043365,
          "qf": 1.1709978559361658,
          "pt": -40.61246166394656,
          "qt": -2.099033965205479
        },
        "6": {
          "pf": -23.285690096364732,
          "qf": 4.4731156219870005,
          "pt": 23.659135052973696,
          "qt": -4.835652496761387
        },
        "7": {
          "pf": -61.15823044177681,
          "qf": 15.823641935196205,
          "pt": 61.672650034965805,
          "qt": -14.201004551736396
        },
        "8": {
          "pf": 7.353276982534694,
          "qf": 3.5604729704122,
          "pt": -7.297903658998023,
          "qt": -3.444514304888471
        },
        "9": {
          "pf": 7.786067015260372,
          "qf": 2.503414236925035,
          "pt": -7.714257771106834,
          "qt": -2.3539591661666264
        },
        "10": {
          "pf": 17.747976862065833,
          "qf": 7.2165753882075,
          "pt": -17.535891466953235,
          "qt": -6.798913038678878
        },
        "11": {
          "pf": 5.227552469422822,
          "qf": 4.219137798621632,
          "pt": -5.214677618549477,
          "qt": -4.184937078760028
        },
        "12": {
          "pf": 9.426381029986103,
          "qf": 3.6100062385294085,
          "pt": -9.310226938642742,
          "qt": -3.362930924097671
        },
        "13": {
          "pf": -3.7853223813161305,
          "qf": -1.6150629212243621,
          "pt": 3.7979036591170114,
          "qt": 1.6445143048589141
        },
        "14": {
          "pf": 1.614257771112855,
          "qf": 0.7539591661614763,
          "pt": -1.6079595127943314,
          "qt": -0.7482607419685264
        },
        "15": {
          "pf": 5.643850979844714,
          "qf": 1.7471737806199834,
          "pt": -5.589773061258252,
          "qt": -1.637069075615241
        },
        "16": {
          "pf": 28.074175916296966,
          "qf": -9.681065714800072,
          "pt": -28.074175916296962,
          "qt": 11.384279940557457
        },
        "17": {
          "pf": 16.079757583068666,
          "qf": -0.4276111815086662,
          "pt": -16.079757583068666,
          "qt": 1.7323220059159545
        },
        "18": {
          "pf": 44.087320858828775,
          "qf": 12.470679811899931,
          "pt": -44.0873208588288,
          "qt": -8.04951819212526
        },
        "19": {
          "pf": 2.8943414276472364e-14,
          "qf": -17.162970509241255,
          "pt": -2.931151117721153e-14,
          "qt": 17.623451366097335
        },
        "20": {
          "pf": 28.074175915923504,
          "qf": 5.778690568988576,
          "pt": -28.074175915923504,
          "qt": -4.976621868457215
        }
      }
    },
    "termination_status": "SOLVED_PF",
    "objective": 0.0
  },
  "parent_seed": -1
}